# Plasma kinetics calculated in ZDPlasKin.
# This case corresponds to a H2/O2/N2 plasma consisting of electrons, atoms, vibrationally excited species, electronically excited species, ions and neutrals.
# Mech author: Xingqian Mao, Hongtao Zhong
# Princeton University
#****************************************************************************************!
#																						 !
#              This is for publication entitled "Dynamics and                            !
#				Chemical Mode Analysis of Plasma Thermal-Chemical Instability"           !
#																						 !
#****************************************************************************************!

ELEMENTS
H O N E
END

SPECIES

# C0 species
H       H2       O       O2       OH
H2O     HO2      H2O2    N2

# N species
N  NH  NH2 NH3 NNH N2H2 N2H3 N2H4 
NO NO2 N2O NO3 HNO HONO HNO2  

# Plasma species (Excited)
N2(v1)  N2(v2)  N2(v3)  N2(v4)  N2(v5)  N2(v6)  N2(v7)  N2(v8)
H2(v1)  H2(v2)  H2(v3)
O2(v1)  O2(v2)  O2(v3)  O2(v4)
N2(A)   N2(B)   N2(a')  N2(C)   N(2D)  
O2(a1)  O2(b1)  O2*  O(1D)  O(1S) 
O3

# Plasma species (Ions) 
N2^+    N4^+
H2^+    H3^+    O2^+    O4^+  
H3O^+   
O^-     O2^-    O4^-     
OH^-    
E

END

BOLSIG
N2 O2 H2 H2O 
END


REACTIONS

#-----------------------------------------------------------------------
#
# Electron impact ionization and attachment reactions
#
#-----------------------------------------------------------------------

# Ionization
e + N2 => e + e + N2^+         !   BOLSIG+ N2 -> N2+(X)
e + O2 => e + e + O2^+         !   BOLSIG+ O2->O2+   
e + H2 => e + e + H2^+         !   BOLSIG+ H2 -> H2+

# Attachment
# M. Capitelli, et al., Plasma Kinetics in Atmospheric Gases, Springer-Verlag, Berlin, Heidelberg, 2000.
e + O2 + N2 => O2^- + N2               ! 1.07d-31*(300.0d0/Te)**2*exp(-70.0d0/Tgas)*exp(1500.0d0*(Te-Tgas)/(Te*Tgas))
e + O2 + O2 => O2^- + O2               ! 1.40d-29*(300.0d0/Te)*exp(-600.0d0/Tgas)*exp(700.0d0*(Te-Tgas)/(Te*Tgas))

# M. Capitelli, et al., Plasma Kinetics in Atmospheric Gases, Springer-Verlag, Berlin, Heidelberg, 2000.
E + O + O2 => O^- + O2                 ! 1.0d-31
E + O + O2 => O2^- + O                 ! 1.0d-31
E + O2 + H2O => O2^- + H2O             ! 1.40d-29
# A. Starikovskiy and N. Aleksandrov, Mechanism of Plasma-Assisted Ignition for H2 and C1-C5 Hydrocarbons, 55th AIAA Aerospace Sciences Meeting, 2017.
E + O + O => O^- + O                   ! 8.33d-31
E + O2 + H2 => O2^- + H2               ! 4.8d-31

# D. Liu, et al., Plasma Sources Sci. Technol. 19 (2010) 025018 (22pp).
E + O => O^-                           ! 1.0d-15

#-----------------------------------------------------------------------
#
# Electron-ion recombination
#
#-----------------------------------------------------------------------

# M. Capitelli, et al., Plasma Kinetics in Atmospheric Gases, Springer-Verlag, Berlin, Heidelberg, 2000.
E + N2^+ => N  + @B                   ! 1.8d-7*(300.0d0/Te)**0.39*@R
    @B = N       N(2D)
    @R = 0.50d0  0.50d0
E + N4^+ => N2 + N2                   ! 2.3d-6*(300.0d0/Te)**0.53
E + H2^+ => H + H                     ! 3.0d-8*(300.0d0/Te)**0.5
E + H3^+ => H + H + H                 ! 0.71*1.55d-7*(300.0d0/Te)**0.97
E + H3^+ => H2 + H                    ! 0.29*1.55d-7*(300.0d0/Te)**0.97
E + O2^+ => O  + @B                   ! 2.7d-7*(300.0d0/Te)**0.7*@R
    @B = O       O(1D)   O(1S)
    @R = 0.55d0  0.40d0  0.05d0
E + O4^+ => O2 + O2                   ! 1.4d-6*(300.0d0/Te)**0.5

# I.A. Kossyi, et al., Plasma Sources Sci. Technol. 1 (1992) 207-220.
E + O2^+ + E => O2 + E                ! 1.0d-19*(300.0d0/Te)**4.5
E + O2^+ + O2 => O2 + O2              ! 6.0d-27*(300.0d0/Te)**1.5

# D. Liu, et al., Plasma Process. Polym. 7 (2010) 846-865.
E + O4^+ + E => O2 + O2 + E           ! 7.18d-27/(Te/1.16d4)**4.5

# D. Liu, et al., Plasma Sources Sci. Technol. 19 (2010) 025018 (22pp).
E + H3O^+ => H2O + H                  ! 5.63d-8/(Te/1.16d4)**0.5
E + H3O^+ => 2H + OH                  ! 1.05d-8/(Te/1.16d4)**0.5

#-----------------------------------------------------------------------
#
# Positive ion reactions
#
#-----------------------------------------------------------------------

# Reactions of N2^+
# M. Capitelli, et al., Plasma Kinetics in Atmospheric Gases, Springer-Verlag, Berlin, Heidelberg, New York.
N2^+ + O2 => O2^+ + N2                      !  6.0d-11*(300.d0/Tgas)**0.5d0
N2^+ + N2 + N2 => N4^+ + N2                 !  5.2d-29*(300.0d0/Tgas)**2.2

# Reactions of N4^+
# M. Capitelli, et al., Plasma Kinetics in Atmospheric Gases, Springer-Verlag, Berlin, Heidelberg, 2000
N4^+ + N2 => N2^+ + N2 + N2       !  2.1d-16*exp(Tgas/121.0d0)
N4^+ + O2 => O2^+ + N2 + N2       !  2.5d-10

# Reactions of H2^+
# M. Capitelli, et al., Plasma Kinetics in Atmospheric Gases, Springer-Verlag, Berlin, Heidelberg, 2000.
H2^+ + H2 => H3^+ + H                   ! 2.1d-9
# D. Liu, et al., Plasma Sources Sci. Technol. 19 (2010) 025018 (22pp).
H2^+ + O2 => H2 + O2^+                  ! 8.0d-10
# UMIST RATE12, astrochemistry.net.
H2^+ + H2O => H + H3O^+                 ! 3.4d-9*(300.0d0/Tgas)**0.5

# Reactions of H3^+
# UMIST RATE12, astrochemistry.net.
H3^+ + H2O => H2 + H3O^+                ! 5.9d-9*(300.0d0/Tgas)**0.5

# Reactions of O2^+
# M. Capitelli, et al., Plasma Kinetics in Atmospheric Gases, Springer-Verlag, Berlin, Heidelberg, 2000.
O2^+ + O2 + O2 => O4^+ + O2              ! 2.4d-30*(300.0d0/Tgas)**3.2

# Reactions of O4^+
# M. Capitelli, et al., Plasma Kinetics in Atmospheric Gases, Springer-Verlag, Berlin, Heidelberg, 2000.
O4^+ + O => O2^+ + O3                    ! 3.0d-10
O4^+ + O2 => O2^+ + O2 + O2              ! 3.3d-6*(300.0d0/Tgas)**4*exp(-5030.0d0/Tgas)
# D. Liu, et al., Plasma Process. Polym. 7 (2010) 846-865.
O4^+ + O(1D) => O2^+ + O3                ! 3.0d-10
O4^+ + O(1S) => O2^+ + O3                ! 3.0d-10

#-----------------------------------------------------------------------
#
# Negative ion reactions
#
#-----------------------------------------------------------------------

# Reactions of O^- 
# M. Capitelli, et al., Plasma Kinetics in Atmospheric Gases, Springer-Verlag, Berlin, Heidelberg, 2000.
O^- + O => O2 + E                       ! 1.4d-10
O^- + O2 => O3  + E                     ! 5.0d-15
O^- + O2(a1) => O3 + E                  ! 3.0d-10
O^- + O2(a1) => O2^- + O                ! 1.0d-10
O^- + O2(b1) => O + O2 + E              ! 6.9d-10
O^- + O3 => O2 + O2 + E                 ! 3.0d-10
# UMIST RATE12, astrochemistry.net.
O^- + H2 => H2O + E                     ! 7.00d-10
O^- + H => OH + E                       ! 5.00d-10
O^- + O2 => O + O2^-                    ! 7.3d-10*exp(-890.0d0/Tgas)
O^- + H2 => OH^- + H                    ! 3.00d-11
# D. Liu, et al., Plasma Process. Polym. 7 (2010) 846-865.
O^- + O3 => O2^- + O2                   ! 1.02d-11*(Tgas/300.0d0)**0.5
O^- + O(1D) => O2 + E                   ! 1.0d-10
O^- + O(1S) => O2 + E                   ! 1.0d-10
# D. Liu, et al., Plasma Sources Sci. Technol. 19 (2010) 025018 (22pp).
O^- + H2O => OH^- + OH      	        ! 1.40d-9
O^- + H2O => H2O2 + E                   ! 6.0d-13
# A. Starikovskiy and N. Aleksandrov, Mechanism of Plasma-Assisted Ignition for H2 and C1-C5 Hydrocarbons, 55th AIAA Aerospace Sciences Meeting, 2017.
O^- + OH => HO2 + E                     ! 1.0d-9
O^- + HO2 => OH + O2 + E                ! 1.0d-9
O^- + H2O2 => H2O + O2 + E              ! 1.0d-9

# Reactions of O2^-
# M. Capitelli, et al., Plasma Kinetics in Atmospheric Gases, Springer-Verlag, Berlin, Heidelberg, 2000.
O2^- + O => O3 + E                      ! 1.5d-10
O2^- + O2 => E + O2 + O2                ! 2.7d-10*(Tgas/300.0d0)**0.5*exp(-5590.0d0/Tgas)
O2^- + O2(a1) => O2 + O2 + E            ! 2.0d-10
O2^- + O2(b1) => O2 + O2 + E            ! 3.6d-10
O2^- + O => O^- + O2                    ! 3.3d-10
O2^- + N2 => O2 + N2 + e               ! 1.9d-12*(Tgas/300)**0.5*exp(-4990.0d0/Tgas)
# I.A. Kossyi, et al, Plasma Sources Sci. Technol. 1 (1992) 207-220.
O2^- + O2 + O2 => O4^- + O2             ! 3.5d-31*(300.0d0/Tgas)
# D. Liu, et al., Plasma Process. Polym. 7 (2010) 846-865.
O2^- + O(1D) => O + O2 + E              ! 1.0d-10
O2^- + O(1S) => O + O2 + E              ! 1.0d-10
O2^- + O(1S) => O^- + 2O                ! 1.0d-10
# D. Liu, et al., Plasma Sources Sci. Technol. 19 (2010) 025018 (22pp).
O2^- + H => HO2 + E                     ! 1.50d-9
O2^- + H2O => O2 + H2O + E              ! 5.0d-9*exp(-5000.0d0/Tgas)
O2^- + OH => OH^- + O2                  ! 1.00d-10
# J. Prager, et al., Proc. Combust. Inst. 31 (2007) 1129-1137.
O2^- + H => OH^- + O                    ! 1.79d-9
# A. Starikovskiy and N. Aleksandrov, Mechanism of Plasma-Assisted Ignition for H2 and C1-C5 Hydrocarbons, 55th AIAA Aerospace Sciences Meeting, 2017.
O2^- + H2 => OH + OH^-                  ! 4.0d-11

# Reactions of O4^-
# M. Capitelli, et al., Plasma Kinetics in Atmospheric Gases, Springer-Verlag, Berlin, Heidelberg, 2000.
O4^- + O => O^- + O2 + O2               ! 3.0d-10
O4^- + O2(a1) => O2^- + O2 + O2         ! 1.0d-10
O4^- + O2(b1) => O2^- + O2 + O2         ! 1.0d-10
# D. Liu, et al., Plasma Process. Polym. 7 (2010) 846-865.
O4^- + O(1D) => O + 2O2 + E             ! 1.0d-10
O4^- + O(1S) => O + 2O2 + E             ! 1.0d-10
O4^- + O2(b1) => 3O2 + E                ! 1.0d-10
O4^- + ANY_NEUTRAL => O2^- + O2 + ANY_NEUTRAL   !  1.0d-10*exp(-1044.0d0/Tgas)
O4^- + O(1D) => O2^- + O2 + O           ! 1.0d-10
O4^- + O(1S) => O^- + 2O2               ! 1.0d-10

# Reactions of OH^-
# UMIST RATE12, astrochemistry.net.
OH^- + H => H2O + E                     ! 1.4d-9
# D. Liu, et al., Plasma Sources Sci. Technol. 19 (2010) 025018 (22pp).
OH^- + O => HO2 + E                     ! 2.0d-10

#-----------------------------------------------------------------------
#
# Ion-ion Recombination 
#
#----------------------------------------------------------------------

# Reactions of O^-
# UMIST RATE12, astrochemistry.net.
O^- + H3^+ => O + H + H2               ! 7.51d-8*(300.0d0/Tgas)**0.5
O^- + H3O^+ => O + H + H2O             ! 7.51d-8*(300.0d0/Tgas)**0.5
# A. Starikovskiy and N. Aleksandrov, Mechanism of Plasma-Assisted Ignition for H2 and C1-C5 Hydrocarbons, 55th AIAA Aerospace Sciences Meeting, 2017.    
O^- + H2^+ => OH + H                   ! 1.0d-7
# M. Capitelli, et al., Plasma Kinetics in Atmospheric Gases, Springer-Verlag, Berlin, Heidelberg, 2000.
O^- + O2^+ => O + O2                     ! 2.0d-7*(300.0d0/Tgas)**0.5
O^- + N2^+ => O + N2                     ! 2.0d-7*(300.0d0/Tgas)**0.5
O^- + @A => O + @B                     ! 1.0d-7
    @A = N2^+  N4^+  O2^+  O4^+  
    @B = N+N   N2+N2 O+O   O2+O2 
O^- + @A + ANY_NEUTRAL => O + @B + ANY_NEUTRAL    ! 2.0d-25*(300.0d0/Tgas)**2.5
    @A = N2^+  O2^+   O4^+ 
    @B = N2    O2     O2+O2
O^- + N2^+ + ANY_NEUTRAL => N2O + ANY_NEUTRAL       ! 2.0d-25*(300.0d0/Tgas)**2.5  
O^- + O2^+ + ANY_NEUTRAL => O3 + ANY_NEUTRAL        ! 2.0d-25*(300.0d0/Tgas)**2.5      
# D. Liu, et al., Plasma Sources Sci. Technol. 19 (2010) 025018 (22pp).
O^- + H2^+ => H2O                      ! 2.0d-7*(300.0d0/Tgas)**0.5
O^- + H3^+ => OH + H2                  ! 2.0d-7*(300.0d0/Tgas)**0.5 
O^- + H3O^+ => H2O + OH                ! 2.0d-7*(300.0d0/Tgas)**0.5

# Reactions of O2^-
# UMIST RATE12, astrochemistry.net.
O2^- + H3^+ => O2 + H + H2             ! 7.51d-8*(300.0d0/Tgas)**0.5  
O2^- + H3O^+ => O2 + H + H2O           ! 7.51d-8*(300.0d0/Tgas)**0.5
# A. Starikovskiy and N. Aleksandrov, Mechanism of Plasma-Assisted Ignition for H2 and C1-C5 Hydrocarbons, 55th AIAA Aerospace Sciences Meeting, 2017.    
O2^- + H2^+ => H + OH + O              ! 1.0d-7
# M. Capitelli, et al., Plasma Kinetics in Atmospheric Gases, Springer-Verlag, Berlin, Heidelberg, 2000.
O2^- + N2^+ => O2 + N2                	! 2.0d-7*(300/Tgas)**0.5*(1+ (300/Tgas)**2)
O2^- + O2^+ => O2 + O2                	! 2.0d-7*(300/Tgas)**0.5*(1+ (300/Tgas)**2)
O2^- + @A => O2 + @B                   ! 1.0d-7
    @A = N2^+  N4^+  O2^+  O4^+ 
    @B = N+N   N2+N2 O+O   O2+O2 
O2^- + @A  + ANY_NEUTRAL => O2 + @B + ANY_NEUTRAL ! 2.0d-25*(300.0d0/Tgas)**2.5
    @A = N2^+  O2^+   O4^+ 
    @B = N2    O2     O2+O2
# D. Liu, et al., Plasma Sources Sci. Technol. 19 (2010) 025018 (22pp).
O2^- + H2^+ => O2 + H2                 ! 2.0d-7*(300.0d0/Tgas)**0.5
O2^- + H3^+ => OH + H2O                ! 2.0d-7*(300.0d0/Tgas)**0.5 

# Reactions of O4^-
# M. Capitelli, et al., Plasma Kinetics in Atmospheric Gases, Springer-Verlag, Berlin, Heidelberg, 2000.
O4^- + @A => 2O2 + @B                   ! 1.0d-7
    @A = N2^+  N4^+   O2^+   O4^+   
    @B = N2    N2+N2  O2     O2+O2 
# D. Liu, et al., Plasma Process. Polym. 7 (2010) 846-865.
O4^- + @A + ANY_NEUTRAL => 2O2 + @B + ANY_NEUTRAL  ! 2.0d-25*(300.0d0/Tgas)**2.5
    @A = O2^+   O4^+
    @B = O2     O2+O2

# Reactions of OH^-
# UMIST RATE12, astrochemistry.net.
OH^- + H3^+ => OH + H + H2             ! 7.51d-8*(300.0d0/Tgas)**0.5
OH^- + H3O^+ => OH + H + H2O           ! 7.51d-8*(300.0d0/Tgas)**0.5
# D. Liu, et al., Plasma Sources Sci. Technol. 19 (2010) 025018 (22pp).
OH^- + H2^+ => H2O + H                 ! 1.0d-7
OH^- + H3^+ => H2 + H2O                ! 2.0d-7*(300.0d0/Tgas)**0.5
OH^- + O2^+ => OH + O2                 ! 2.0d-7*(300.0d0/Tgas)**0.5
OH^- + H3O^+ => 2H2O                   ! 4.0d-7*(300.0d0/Tgas)**0.5

#-----------------------------------------------------------------------
#
# Electron impact vibrational excitation
#
#-----------------------------------------------------------------------

# Phelps database, www.lxcat.net.
E + N2 => E + N2(v1)                   ! BOLSIG N2 -> N2(v1)
E + N2 => E + N2(v2)                   ! BOLSIG N2 -> N2(v2)
E + N2 => E + N2(v3)                   ! BOLSIG N2 -> N2(v3)
E + N2 => E + N2(v4)                   ! BOLSIG N2 -> N2(v4)
E + N2 => E + N2(v5)                   ! BOLSIG N2 -> N2(v5)
E + N2 => E + N2(v6)                   ! BOLSIG N2 -> N2(v6)
E + N2 => E + N2(v7)                   ! BOLSIG N2 -> N2(v7)
E + N2 => E + N2(v8)                   ! BOLSIG N2 -> N2(v8)
# Phelps database, www.lxcat.net.
E + H2 => E + H2(v1)                   ! BOLSIG H2 -> H2(v1)
E + H2 => E + H2(v2)                   ! BOLSIG H2 -> H2(v2)
E + H2 => E + H2(v3)                   ! BOLSIG H2 -> H2(v3)
# Biagi database, www.lxcat.net.
E + O2 => E + O2(v1)                   ! BOLSIG O2 -> O2(v1)     
E + O2 => E + O2(v2)                   ! BOLSIG O2 -> O2(v2)
E + O2 => E + O2(v3)                   ! BOLSIG O2 -> O2(v3)
E + O2 => E + O2(v4)                   ! BOLSIG O2 -> O2(v4)


# VT-N2 Rate constant Definition
$ double precision :: kVT10_H2N2, kVT10_H2O2, kVT10_H2H2, kVT10_H2H2O, kVT10_H2OH, kVT10_H2H, kVT10_H2O ! cm3.s-1
$ double precision :: kVT10_O2N2, kVT10_O2O2, kVT10_O2H2, kVT10_O2H2O, kVT10_O2OH, kVT10_O2H, kVT10_O2O ! cm3.s-1
$ double precision :: kVT10_N2N2, kVT10_N2O2, kVT10_N2H2, kVT10_N2H2O, kVT10_N2OH, kVT10_N2H, kVT10_N2O, kVT10_N2N ! cm3.s-1
$ double precision :: kVV10_H2H2, kVV10_O2O2, kVV10_N2N2 ! cm3.s-1
$ double precision :: M ! cm-3
$ double precision :: ktot, k0, kR1, kR2, kR3 ! cm3.s-1

# Rate constant is calculated at 200 Torr.
$ M = 200/760*101325.0d0/1.38064852d-17/Tgas
$ ktot = 3.0d-11*Tgas**0.17*exp(-2726.0d0/Tgas)
$ k0 = 2.2d-37*Tgas**2.34*exp(-1350.0d0/Tgas)
$ kR1 = 6.8d-16*Tgas**1.51*exp(-3040.0d0/Tgas)
$ kR2 = ktot*(k0*M/(ktot+k0*M))
$ kR3 = ktot-kR1-kR2

# VT-H2/O2/N2 Rate constant Definition
$ kVT10_H2N2 = 0.08*exp(-19.94d0-144.9d0/Tgas**(1.0d0/3.0d0))
$ kVT10_H2O2 = 0.08*exp(-19.94d0-144.9d0/Tgas**(1.0d0/3.0d0))
$ kVT10_H2H2 = exp(-19.94d0-144.9d0/Tgas**(1.0d0/3.0d0))
$ kVT10_H2H2O = 0.23*exp(-19.94d0-144.9d0/Tgas**(1.0d0/3.0d0)) 
$ kVT10_H2OH = 0.23*exp(-19.94d0-144.9d0/Tgas**(1.0d0/3.0d0)) 
$ kVT10_H2H = 1.73d-14/Tgas**0.5
$ kVT10_H2O = 2.2d-12

$ kVT10_O2N2 = exp(-28.02d0-132.0d0/Tgas**(1.0d0/3.0d0))
$ kVT10_O2O2 = exp(-18.32d0-157.0d0/Tgas**(1.0d0/3.0d0)) 
$ kVT10_O2H2 = exp(-22.04d0-91.5d0/Tgas**(1.0d0/3.0d0))
$ kVT10_O2H2O = 100*exp(-18.32d0-157.0d0/Tgas**(1.0d0/3.0d0)) 
$ kVT10_O2OH = 100*exp(-18.32d0-157.0d0/Tgas**(1.0d0/3.0d0)) 
$ kVT10_O2H = 1.7*exp(-22.04d0-91.5d0/Tgas**(1.0d0/3.0d0))
$ kVT10_O2O = Tgas*exp(-28.87d0-111.0d0/Tgas**(1.0d0/3.0d0)) 

$ kVT10_N2N2 = Tgas*exp(-22.86d0-328.9d0/Tgas**(1.0d0/3.0d0)+993.3d0/Tgas**(2.0d0/3.0d0))
$ kVT10_N2O2 = Tgas*exp(-22.86d0-328.9d0/Tgas**(1.0d0/3.0d0)+993.3d0/Tgas**(2.0d0/3.0d0))
$ kVT10_N2H2 = Tgas*exp(-24.89d0-167.24d0/Tgas**(1.0d0/3.0d0)+394.43d0/Tgas**(2.0d0/3.0d0))
$ kVT10_N2H2O = Tgas*exp(-35.12d0-21.18d0/Tgas**(1.0d0/3.0d0))
$ kVT10_N2OH = Tgas*exp(-24.89d0-167.24d0/Tgas**(1.0d0/3.0d0)+394.43d0/Tgas**(2.0d0/3.0d0))
$ kVT10_N2H = 3.1d0*Tgas*exp(-24.89d0-167.24d0/Tgas**(1.0d0/3.0d0)+394.43d0/Tgas**(2.0d0/3.0d0))
$ kVT10_N2O = Tgas*exp(-34.03d0-33.11d0/Tgas**(1.0d0/3.0d0))
$ kVT10_N2N = 4.0d-16*(Tgas/300.0d0)**0.5

# VV-H2/O2/N2 Rate constant Definition
$ kVV10_H2H2 = 4.23d-15*(300.0d0/Tgas)**(1.0d0/3.0d0)
$ kVV10_O2O2 = 0.9d-14*(Tgas/300.0d0)**1.5
$ kVV10_N2N2 = 0.9d-14*(Tgas/300.0d0)**1.5

#-----------------------------------------------------------------------
#
# relaxation of N2(v)
#
#-----------------------------------------------------------------------

# SSH theory and approximations for the Morse oscillator model
# M. Capitelli, et al., Plasma Kinetics in Atmospheric Gases, Springer-Verlag, Berlin, Heidelberg, 2000
# A. Starikovskiy and N. Aleksandrov, Prog. Energy Combust. Sci. 39 (1) (2013) 61-110
# <1620 K
N2(v1) + N2 => N2 + N2                    !  kVT10_N2N2
N2(v2) + N2 => N2(v1) + N2                !  kVT10_N2N2*2.012*exp(2.128d0/Tgas**(1.0d0/3.0d0))
N2(v3) + N2 => N2(v2) + N2                !  kVT10_N2N2*3.037*exp(4.256d0/Tgas**(1.0d0/3.0d0))
N2(v4) + N2 => N2(v3) + N2                !  kVT10_N2N2*4.075*exp(6.384d0/Tgas**(1.0d0/3.0d0))
N2(v5) + N2 => N2(v4) + N2                !  kVT10_N2N2*5.125*exp(8.512d0/Tgas**(1.0d0/3.0d0))
N2(v6) + N2 => N2(v5) + N2                !  kVT10_N2N2*6.189*exp(10.64d0/Tgas**(1.0d0/3.0d0))
N2(v7) + N2 => N2(v6) + N2                !  kVT10_N2N2*7.266*exp(12.769d0/Tgas**(1.0d0/3.0d0))
N2(v8) + N2 => N2(v7) + N2                !  kVT10_N2N2*8.357*exp(14.897d0/Tgas**(1.0d0/3.0d0))

# <1730 K
N2(v1) + O2 => N2 + O2                    !  kVT10_N2O2
N2(v2) + O2 => N2(v1) + O2                !  kVT10_N2O2*2.012*exp(2.174d0/Tgas**(1.0d0/3.0d0))
N2(v3) + O2 => N2(v2) + O2                !  kVT10_N2O2*3.037*exp(4.349d0/Tgas**(1.0d0/3.0d0))
N2(v4) + O2 => N2(v3) + O2                !  kVT10_N2O2*4.075*exp(6.523d0/Tgas**(1.0d0/3.0d0))
N2(v5) + O2 => N2(v4) + O2                !  kVT10_N2O2*5.125*exp(8.697d0/Tgas**(1.0d0/3.0d0))
N2(v6) + O2 => N2(v5) + O2                !  kVT10_N2O2*6.189*exp(10.872d0/Tgas**(1.0d0/3.0d0))
N2(v7) + O2 => N2(v6) + O2                !  kVT10_N2O2*7.266*exp(13.046d0/Tgas**(1.0d0/3.0d0))
N2(v8) + O2 => N2(v7) + O2                !  kVT10_N2O2*8.357*exp(15.221d0/Tgas**(1.0d0/3.0d0))

# >300 K 
N2(v1) + H2 => N2 + H2                    !  kVT10_N2H2
N2(v2) + H2 => N2(v1) + H2                !  kVT10_N2H2*2.012*exp(1.767d0*(1.867d0/Tgas)**0.5)
N2(v3) + H2 => N2(v2) + H2                !  kVT10_N2H2*3.037*exp(3.534d0*(1.867d0/Tgas)**0.5)
N2(v4) + H2 => N2(v3) + H2                !  kVT10_N2H2*4.075*exp(5.301d0*(1.867d0/Tgas)**0.5)
N2(v5) + H2 => N2(v4) + H2                !  kVT10_N2H2*5.125*exp(7.068d0*(1.867d0/Tgas)**0.5)
N2(v6) + H2 => N2(v5) + H2                !  kVT10_N2H2*6.189*exp(8.835d0*(1.867d0/Tgas)**0.5)
N2(v7) + H2 => N2(v6) + H2                !  kVT10_N2H2*7.266*exp(10.602d0*(1.867d0/Tgas)**0.5)
N2(v8) + H2 => N2(v7) + H2                !  kVT10_N2H2*8.357*exp(12.369d0*(1.867d0/Tgas)**0.5)

# <1270 K
N2(v1) + H2O => N2 + H2O                  !  kVT10_N2H2O
N2(v2) + H2O => N2(v1) + H2O              !  kVT10_N2H2O*2.012*exp(1.961d0/Tgas**(1.0d0/3.0d0))
N2(v3) + H2O => N2(v2) + H2O              !  kVT10_N2H2O*3.037*exp(3.922d0/Tgas**(1.0d0/3.0d0))
N2(v4) + H2O => N2(v3) + H2O              !  kVT10_N2H2O*4.075*exp(5.883d0/Tgas**(1.0d0/3.0d0))
N2(v5) + H2O => N2(v4) + H2O              !  kVT10_N2H2O*5.125*exp(7.844d0/Tgas**(1.0d0/3.0d0))
N2(v6) + H2O => N2(v5) + H2O              !  kVT10_N2H2O*6.189*exp(9.806d0/Tgas**(1.0d0/3.0d0))
N2(v7) + H2O => N2(v6) + H2O              !  kVT10_N2H2O*7.266*exp(11.767d0/Tgas**(1.0d0/3.0d0))
N2(v8) + H2O => N2(v7) + H2O              !  kVT10_N2H2O*8.357*exp(13.728d0/Tgas**(1.0d0/3.0d0))

# <1225 K
N2(v1) + OH => N2 + OH                    !  kVT10_N2OH
N2(v2) + OH => N2(v1) + OH                !  kVT10_N2OH*2.012*exp(1.938d0/Tgas**(1.0d0/3.0d0))
N2(v3) + OH => N2(v2) + OH                !  kVT10_N2OH*3.037*exp(3.877d0/Tgas**(1.0d0/3.0d0))
N2(v4) + OH => N2(v3) + OH                !  kVT10_N2OH*4.075*exp(5.815d0/Tgas**(1.0d0/3.0d0))
N2(v5) + OH => N2(v4) + OH                !  kVT10_N2OH*5.125*exp(7.753d0/Tgas**(1.0d0/3.0d0))
N2(v6) + OH => N2(v5) + OH                !  kVT10_N2OH*6.189*exp(9.691d0/Tgas**(1.0d0/3.0d0))
N2(v7) + OH => N2(v6) + OH                !  kVT10_N2OH*7.266*exp(11.630d0/Tgas**(1.0d0/3.0d0))
N2(v8) + OH => N2(v7) + OH                !  kVT10_N2OH*8.357*exp(13.568d0/Tgas**(1.0d0/3.0d0))

# >300 K  
N2(v1) + H => N2 + H                      !  kVT10_N2H
N2(v2) + H => N2(v1) + H                  !  kVT10_N2H*2.012*exp(1.767d0*(0.966d0/Tgas)**0.5)
N2(v3) + H => N2(v2) + H                  !  kVT10_N2H*3.037*exp(3.534d0*(0.966d0/Tgas)**0.5)
N2(v4) + H => N2(v3) + H                  !  kVT10_N2H*4.075*exp(5.301d0*(0.966d0/Tgas)**0.5)
N2(v5) + H => N2(v4) + H                  !  kVT10_N2H*5.125*exp(7.068d0*(0.966d0/Tgas)**0.5)
N2(v6) + H => N2(v5) + H                  !  kVT10_N2H*6.189*exp(8.835d0*(0.966d0/Tgas)**0.5)
N2(v7) + H => N2(v6) + H                  !  kVT10_N2H*7.266*exp(10.602d0*(0.966d0/Tgas)**0.5)
N2(v8) + H => N2(v7) + H                  !  kVT10_N2H*8.357*exp(12.369d0*(0.966d0/Tgas)**0.5)

# <1180 K
N2(v1) + O => N2 + O                      !  kVT10_N2O
N2(v2) + O => N2(v1) + O                  !  kVT10_N2O*2.012*exp(1.914d0/Tgas**(1.0d0/3.0d0))
N2(v3) + O => N2(v2) + O                  !  kVT10_N2O*3.037*exp(3.828d0/Tgas**(1.0d0/3.0d0))
N2(v4) + O => N2(v3) + O                  !  kVT10_N2O*4.075*exp(5.741d0/Tgas**(1.0d0/3.0d0))
N2(v5) + O => N2(v4) + O                  !  kVT10_N2O*5.125*exp(7.655d0/Tgas**(1.0d0/3.0d0))
N2(v6) + O => N2(v5) + O                  !  kVT10_N2O*6.189*exp(9.569d0/Tgas**(1.0d0/3.0d0))
N2(v7) + O => N2(v6) + O                  !  kVT10_N2O*7.266*exp(11.483d0/Tgas**(1.0d0/3.0d0))
N2(v8) + O => N2(v7) + O                  !  kVT10_N2O*8.357*exp(13.396d0/Tgas**(1.0d0/3.0d0))

# M. Capitelli, et al., Plasma Kinetics in Atmospheric Gases, Springer-Verlag, Berlin, Heidelberg, 2000
# <1080 K
N2(v1) + N => N2 + N                      !  kVT10_N2N
N2(v2) + N => N2(v1) + N                  !  kVT10_N2N*2.012*exp(1.859d0/Tgas**(1.0d0/3.0d0))
N2(v3) + N => N2(v2) + N                  !  kVT10_N2N*3.037*exp(3.718d0/Tgas**(1.0d0/3.0d0))
N2(v4) + N => N2(v3) + N                  !  kVT10_N2N*4.075*exp(5.577d0/Tgas**(1.0d0/3.0d0))
N2(v5) + N => N2(v4) + N                  !  kVT10_N2N*5.125*exp(7.436d0/Tgas**(1.0d0/3.0d0))
N2(v6) + N => N2(v5) + N                  !  kVT10_N2N*6.189*exp(9.295d0/Tgas**(1.0d0/3.0d0))
N2(v7) + N => N2(v6) + N                  !  kVT10_N2N*7.266*exp(11.154d0/Tgas**(1.0d0/3.0d0))
N2(v8) + N => N2(v7) + N                  !  kVT10_N2N*8.357*exp(13.013d0/Tgas**(1.0d0/3.0d0))

#-----------------------------------------------------------------------
#
# Relaxation of H2(v)
#
#-----------------------------------------------------------------------

# SSH theory and approximations for the Morse oscillator model.
# M. Capitelli, et al., Plasma Kinetics in Atmospheric Gases, Springer-Verlag, Berlin, Heidelberg, 2000.
# A. Starikovskiy and N. Aleksandrov, Prog. Energy Combust. Sci. 39 (1) (2013) 61-110.
# Rate constants fitted at the temperatures above 650 K
H2(v1) + N2 => H2 + N2                   ! kVT10_H2N2 
H2(v2) + N2 => H2(v1) + N2               ! kVT10_H2N2*2.06*exp(14.92d0*(1.867d0/Tgas)**0.5)
H2(v3) + N2 => H2(v2) + N2               ! kVT10_H2N2*3.18*exp(29.84d0*(1.867d0/Tgas)**0.5)

#>650 K
H2(v1) + O2 => H2 + O2                   ! kVT10_H2O2 
H2(v2) + O2 => H2(v1) + O2               ! kVT10_H2O2*2.06*exp(14.92d0*(1.882d0/Tgas)**0.5)
H2(v3) + O2 => H2(v2) + O2               ! kVT10_H2O2*3.18*exp(29.84d0*(1.882d0/Tgas)**0.5)

#>345 K
H2(v1) + H2 => H2 + H2                   ! kVT10_H2H2 
H2(v2) + H2 => H2(v1) + H2               ! kVT10_H2H2*2.06*exp(14.92d0*(1.0d0/Tgas)**0.5) 
H2(v3) + H2 => H2(v2) + H2               ! kVT10_H2H2*3.18*exp(29.84d0*(1.0d0/Tgas)**0.5)

#>625 K
H2(v1) + H2O => H2 + H2O                 ! kVT10_H2H2O
H2(v2) + H2O => H2(v1) + H2O             ! kVT10_H2H2O*2.06*exp(14.92d0*(1.8d0/Tgas)**0.5)
H2(v3) + H2O => H2(v2) + H2O             ! kVT10_H2H2O*3.18*exp(29.84d0*(1.8d0/Tgas)**0.5)

#>625 K
H2(v1) + OH => H2 + OH                   ! kVT10_H2OH
H2(v2) + OH => H2(v1) + OH               ! kVT10_H2OH*2.06*exp(14.92d0*(1.789d0/Tgas)**0.5) 
H2(v3) + OH => H2(v2) + OH               ! kVT10_H2OH*3.18*exp(29.84d0*(1.789d0/Tgas)**0.5) 

#>300 K
H2(v1) + H => H2 + H                     ! kVT10_H2H
H2(v2) + H => H2(v1) + H                 ! kVT10_H2H*2.06*exp(14.92d0*(6.667d-1/Tgas)**0.5) 
H2(v3) + H => H2(v2) + H                 ! kVT10_H2H*3.18*exp(29.84d0*(6.667d-1/Tgas)**0.5) 

#>615 K
H2(v1) + O => H2 + O                     ! kVT10_H2O
H2(v2) + O => H2(v1) + O                 ! kVT10_H2O*2.06*exp(14.92d0*(1.778d0/Tgas)**0.5) 
H2(v3) + O => H2(v2) + O                 ! kVT10_H2O*3.18*exp(29.84d0*(1.778d0/Tgas)**0.5) 

#-----------------------------------------------------------------------
#
# Relaxation of O2(v)
#
#-----------------------------------------------------------------------

# SSH theory and approximations for the Morse oscillator model.
# M. Capitelli, et al., Plasma Kinetics in Atmospheric Gases, Springer-Verlag, Berlin, Heidelberg, 2000.
# A. Starikovskiy and N. Aleksandrov, Prog. Energy Combust. Sci. 39 (1) (2013) 61-110.
#>745 K
O2(v1) + N2 => O2 + N2                   ! kVT10_O2N2 
O2(v2) + N2 => O2(v1) + N2               ! kVT10_O2N2*2.015*exp(1.45d0*(14.933d0/Tgas)**0.5) 
O2(v3) + N2 => O2(v2) + N2               ! kVT10_O2N2*3.047*exp(2.90d0*(14.933d0/Tgas)**0.5)  
O2(v4) + N2 => O2(v3) + N2               ! kVT10_O2N2*4.094*exp(4.35d0*(14.933d0/Tgas)**0.5) 

#>800 K
O2(v1) + O2 => O2 + O2                   ! kVT10_O2O2 
O2(v2) + O2 => O2(v1) + O2               ! kVT10_O2O2*2.015*exp(1.45d0*(16.0d0/Tgas)**0.5) 
O2(v3) + O2 => O2(v2) + O2               ! kVT10_O2O2*3.047*exp(2.90d0*(16.0d0/Tgas)**0.5)  
O2(v4) + O2 => O2(v3) + O2               ! kVT10_O2O2*4.094*exp(4.35d0*(16.0d0/Tgas)**0.5)  

#>300 K
O2(v1) + H2 => O2 + H2                   ! kVT10_O2H2
O2(v2) + H2 => O2(v1) + H2               ! kVT10_O2H2*2.015*exp(1.45d0*(1.882d0/Tgas)**0.5) 
O2(v3) + H2 => O2(v2) + H2               ! kVT10_O2H2*3.047*exp(2.90d0*(1.882d0/Tgas)**0.5)
O2(v4) + H2 => O2(v3) + H2               ! kVT10_O2H2*4.094*exp(4.35d0*(1.882d0/Tgas)**0.5)

#>575 K
O2(v1) + H2O => O2 + H2O                 ! kVT10_O2H2O 
O2(v2) + H2O => O2(v1) + H2O             ! kVT10_O2H2O*2.015*exp(1.45d0*(11.52d0/Tgas)**0.5) 
O2(v3) + H2O => O2(v2) + H2O             ! kVT10_O2H2O*3.047*exp(2.90d0*(11.52d0/Tgas)**0.5)  
O2(v4) + H2O => O2(v3) + H2O             ! kVT10_O2H2O*4.094*exp(4.35d0*(11.52d0/Tgas)**0.5) 

#>555 K
O2(v1) + OH => O2 + OH                   ! kVT10_O2OH
O2(v2) + OH => O2(v1) + OH               ! kVT10_O2OH*2.015*exp(1.45d0*(11.102d0/Tgas)**0.5) 
O2(v3) + OH => O2(v2) + OH               ! kVT10_O2OH*3.047*exp(2.90d0*(11.102d0/Tgas)**0.5)
O2(v4) + OH => O2(v3) + OH               ! kVT10_O2OH*4.094*exp(4.35d0*(11.102d0/Tgas)**0.5)

#>300 K
O2(v1) + H => O2 + H                     ! kVT10_O2H
O2(v2) + H => O2(v1) + H                 ! kVT10_O2H*2.015*exp(1.45d0*(9.697d-1/Tgas)**0.5) 
O2(v3) + H => O2(v2) + H                 ! kVT10_O2H*3.047*exp(2.90d0*(9.697d-1/Tgas)**0.5)
O2(v4) + H => O2(v3) + H                 ! kVT10_O2H*4.094*exp(4.35d0*(9.697d-1/Tgas)**0.5)

#>535 K
O2(v1) + O => O2 + O                     ! kVT10_O2O
O2(v2) + O => O2(v1) + O                 ! kVT10_O2O*2.015*exp(1.45d0*(10.667d0/Tgas)**0.5) 
O2(v3) + O => O2(v2) + O                 ! kVT10_O2O*3.047*exp(2.90d0*(10.667d0/Tgas)**0.5)
O2(v4) + O => O2(v3) + O                 ! kVT10_O2O*4.094*exp(4.35d0*(10.667d0/Tgas)**0.5)

#-----------------------------------------------------------------------
#
# Vibrational-Vibrational (V-V) interactions
#
#-----------------------------------------------------------------------

# M. Capitelli, et al., Plasma Kinetics in Atmospheric Gases, Springer-Verlag, Berlin, Heidelberg, 2000.
# V-V reactions of N2
N2(v1) + N2(v1) => N2 + N2(v2)           ! kVV10_N2N2*2.012*exp(6.611d0/Tgas**0.5)*0.92
N2(v1) + N2(v2) => N2 + N2(v3)           ! kVV10_N2N2*3.037*exp(13.223d0/Tgas**0.5)*0.88
N2(v1) + N2(v3) => N2 + N2(v4)           ! kVV10_N2N2*4.075*exp(19.834d0/Tgas**0.5)*0.84
N2(v1) + N2(v4) => N2 + N2(v5)           ! kVV10_N2N2*5.125*exp(26.445d0/Tgas**0.5)*0.8
N2(v1) + N2(v5) => N2 + N2(v6)           ! kVV10_N2N2*6.189*exp(33.057d0/Tgas**0.5)*0.76
N2(v1) + N2(v6) => N2 + N2(v7)           ! kVV10_N2N2*7.266*exp(39.668d0/Tgas**0.5)*0.72
N2(v1) + N2(v7) => N2 + N2(v8)           ! kVV10_N2N2*8.357*exp(46.279d0/Tgas**0.5)*0.68

N2(v2) + N2 => N2(v1) + N2(v1)           ! kVV10_N2N2*2.012*exp(6.611d0/Tgas**0.5)*0.92
N2(v2) + N2(v2) => N2(v1) + N2(v3)       ! kVV10_N2N2*6.112*exp(6.611d0/Tgas**0.5)*0.88
N2(v2) + N2(v3) => N2(v1) + N2(v4)       ! kVV10_N2N2*8.199*exp(13.223d0/Tgas**0.5)*0.84
N2(v2) + N2(v4) => N2(v1) + N2(v5)       ! kVV10_N2N2*10.314*exp(19.834d0/Tgas**0.5)*0.8
N2(v2) + N2(v5) => N2(v1) + N2(v6)       ! kVV10_N2N2*12.454*exp(26.445d0/Tgas**0.5)*0.76
N2(v2) + N2(v6) => N2(v1) + N2(v7)       ! kVV10_N2N2*14.622*exp(33.057d0/Tgas**0.5)*0.72
N2(v2) + N2(v7) => N2(v1) + N2(v8)       ! kVV10_N2N2*16.818*exp(39.668d0/Tgas**0.5)*0.68
