# Plasma kinetics calculated in ZDPlasKin.
# This case corresponds to a DME/O2/N2 plasma consisting of electrons, atoms, vibrationally excited species, electronically excited species, ions and neutrals.
# Mech author: Xingqian Mao, Hongtao Zhong
# Princeton University
#****************************************************************************************!
#																						 !
#              This is for publication entitled "Dynamics and                            !
#				Chemical Mode Analysis of Plasma Thermal-Chemical Instability"           !
#																						 !
#****************************************************************************************!

ELEMENTS
C H O N E
END

SPECIES

H H2 CH2 CH2(S) CH3
O CH4 OH H2O C2H2
C2H3 CO N2 C2H4 HCO
C2H5 CH2O C2H6 CH2OH CH3O
O2 CH3OH HO2 H2O2 HCCO
CH2CO CH2HCO CH3CO CO2 CH3HCO
CH3CHOH C2H4OH CH3CH2O CH3OCH2 HOCHO
CH3OCH3 C2H5OH HOCH2O CH3OCO CH3OCHO
CH3OCH2O CH3OCH2OH OCH2OCHO HOCH2OCO HOC2H4O2
CH3OCH2O2 CH2OCH2O2H CH3OCH2O2H HO2CH2OCHO O2CH2OCH2O2H
CH3O2 CH3O2H CH2CHOH

! N species
N NH NH2 NH3 NNH N2H2 N2H3 N2H4 CN HCN H2CN HCNN NCN
NO NO2 N2O NO3 NCO HNO HONO HNO2


HCNO C2H CH CH2CHO HNCO HOCN

! Plasma species (Excited)
N2(v1)  N2(v2)  N2(v3)  N2(v4)  N2(v5)  N2(v6)  N2(v7)  N2(v8)
O2(v1)  O2(v2)  O2(v3)  O2(v4)  

N2(A)   N2(B)   N2(a')  N2(C)   N(2D)
O2(a1)  O2(b1)  O2*  O(1D)  O(1S) O3 

! Plasma species (Ions)
N2^+    N4^+
O2^+    O4^+      
O^-     O2^-     O4^-  
CH3OCH3^+     
E

END

BOLSIG
N2 O2 CH3OCH3
END


REACTIONS

#-----------------------------------------------------------------------
#
# Electron impact ionization and attachment reactions
#
#-----------------------------------------------------------------------

# Ionization
e + N2 => e + e + N2^+         !   BOLSIG+ N2 -> N2+(X)
e + O2 => e + e + O2^+         !   BOLSIG+ O2->O2+   

# Attachment
# M. Capitelli, et al., Plasma Kinetics in Atmospheric Gases, Springer-Verlag, Berlin, Heidelberg, 2000.
e + O2 + N2 => O2^- + N2               ! 1.07d-31*(300.0d0/Te)**2*exp(-70.0d0/Tgas)*exp(1500.0d0*(Te-Tgas)/(Te*Tgas))
e + O2 + O2 => O2^- + O2               ! 1.40d-29*(300.0d0/Te)*exp(-600.0d0/Tgas)*exp(700.0d0*(Te-Tgas)/(Te*Tgas))

# M. Capitelli, et al., Plasma Kinetics in Atmospheric Gases, Springer-Verlag, Berlin, Heidelberg, 2000.
E + O + O2 => O^- + O2                 ! 1.0d-31
E + O + O2 => O2^- + O                 ! 1.0d-31
E + O2 + H2O => O2^- + H2O             ! 1.40d-29
# A. Starikovskiy and N. Aleksandrov, Mechanism of Plasma-Assisted Ignition for H2 and C1-C5 Hydrocarbons, 55th AIAA Aerospace Sciences Meeting, 2017.
E + O + O => O^- + O                   ! 8.33d-31
E + O2 + H2 => O2^- + H2               ! 4.8d-31

# D. Liu, et al., Plasma Sources Sci. Technol. 19 (2010) 025018 (22pp).
E + O => O^-                           ! 1.0d-15

#-----------------------------------------------------------------------
#
# Electron-ion recombination
#
#-----------------------------------------------------------------------

# M. Capitelli, et al., Plasma Kinetics in Atmospheric Gases, Springer-Verlag, Berlin, Heidelberg, 2000.
E + N2^+ => N  + @B                   ! 1.8d-7*(300.0d0/Te)**0.39*@R
    @B = N       N(2D)
    @R = 0.50d0  0.50d0
E + N4^+ => N2 + N2                   ! 2.3d-6*(300.0d0/Te)**0.53

E + O2^+ => O  + @B                   ! 2.7d-7*(300.0d0/Te)**0.7*@R
    @B = O       O(1D)   O(1S)
    @R = 0.55d0  0.40d0  0.05d0
E + O4^+ => O2 + O2                   ! 1.4d-6*(300.0d0/Te)**0.5

# I.A. Kossyi, et al., Plasma Sources Sci. Technol. 1 (1992) 207-220.
E + O2^+ + E => O2 + E                ! 1.0d-19*(300.0d0/Te)**4.5
E + O2^+ + O2 => O2 + O2              ! 6.0d-27*(300.0d0/Te)**1.5

# D. Liu, et al., Plasma Process. Polym. 7 (2010) 846-865.
E + O4^+ + E => O2 + O2 + E           ! 7.18d-27/(Te/1.16d4)**4.5

#-----------------------------------------------------------------------
#
# Positive ion reactions
#
#-----------------------------------------------------------------------

# Reactions of N2^+
# M. Capitelli, et al., Plasma Kinetics in Atmospheric Gases, Springer-Verlag, Berlin, Heidelberg, New York.
N2^+ + O2 => O2^+ + N2                      !  6.0d-11*(300.d0/Tgas)**0.5d0
N2^+ + N2 + N2 => N4^+ + N2                 !  5.2d-29*(300.0d0/Tgas)**2.2

# Reactions of N4^+
# M. Capitelli, et al., Plasma Kinetics in Atmospheric Gases, Springer-Verlag, Berlin, Heidelberg, 2000
N4^+ + N2 => N2^+ + N2 + N2       !  2.1d-16*exp(Tgas/121.0d0)
N4^+ + O2 => O2^+ + N2 + N2       !  2.5d-10


# Reactions of O2^+
# M. Capitelli, et al., Plasma Kinetics in Atmospheric Gases, Springer-Verlag, Berlin, Heidelberg, 2000.
O2^+ + O2 + O2 => O4^+ + O2              ! 2.4d-30*(300.0d0/Tgas)**3.2

# Reactions of O4^+
# M. Capitelli, et al., Plasma Kinetics in Atmospheric Gases, Springer-Verlag, Berlin, Heidelberg, 2000.
O4^+ + O => O2^+ + O3                    ! 3.0d-10
O4^+ + O2 => O2^+ + O2 + O2              ! 3.3d-6*(300.0d0/Tgas)**4*exp(-5030.0d0/Tgas)
# D. Liu, et al., Plasma Process. Polym. 7 (2010) 846-865.
O4^+ + O(1D) => O2^+ + O3                ! 3.0d-10
O4^+ + O(1S) => O2^+ + O3                ! 3.0d-10

#-----------------------------------------------------------------------
#
# Negative ion reactions
#
#-----------------------------------------------------------------------

# Reactions of O^- 
# M. Capitelli, et al., Plasma Kinetics in Atmospheric Gases, Springer-Verlag, Berlin, Heidelberg, 2000.
O^- + O => O2 + E                       ! 1.4d-10
O^- + O2 => O3  + E                     ! 5.0d-15
O^- + O2(a1) => O3 + E                  ! 3.0d-10
O^- + O2(a1) => O2^- + O                ! 1.0d-10
O^- + O2(b1) => O + O2 + E              ! 6.9d-10
O^- + O3 => O2 + O2 + E                 ! 3.0d-10
# UMIST RATE12, astrochemistry.net.
O^- + H2 => H2O + E                     ! 7.00d-10
O^- + H => OH + E                       ! 5.00d-10
O^- + O2 => O + O2^-                    ! 7.3d-10*exp(-890.0d0/Tgas)
#O^- + H2 => OH^- + H                    ! 3.00d-11
# D. Liu, et al., Plasma Process. Polym. 7 (2010) 846-865.
O^- + O3 => O2^- + O2                   ! 1.02d-11*(Tgas/300.0d0)**0.5
O^- + O(1D) => O2 + E                   ! 1.0d-10
O^- + O(1S) => O2 + E                   ! 1.0d-10
# D. Liu, et al., Plasma Sources Sci. Technol. 19 (2010) 025018 (22pp).
#O^- + H2O => OH^- + OH      	        ! 1.40d-9
O^- + H2O => H2O2 + E                   ! 6.0d-13
# A. Starikovskiy and N. Aleksandrov, Mechanism of Plasma-Assisted Ignition for H2 and C1-C5 Hydrocarbons, 55th AIAA Aerospace Sciences Meeting, 2017.
O^- + OH => HO2 + E                     ! 1.0d-9
O^- + HO2 => OH + O2 + E                ! 1.0d-9
O^- + H2O2 => H2O + O2 + E              ! 1.0d-9

# Reactions of O2^-
# M. Capitelli, et al., Plasma Kinetics in Atmospheric Gases, Springer-Verlag, Berlin, Heidelberg, 2000.
O2^- + O => O3 + E                      ! 1.5d-10
O2^- + O2 => E + O2 + O2                ! 2.7d-10*(Tgas/300.0d0)**0.5*exp(-5590.0d0/Tgas)
O2^- + O2(a1) => O2 + O2 + E            ! 2.0d-10
O2^- + O2(b1) => O2 + O2 + E            ! 3.6d-10
O2^- + O => O^- + O2                    ! 3.3d-10
O2^- + N2 => O2 + N2 + e               ! 1.9d-12*(Tgas/300)**0.5*exp(-4990.0d0/Tgas)
# I.A. Kossyi, et al, Plasma Sources Sci. Technol. 1 (1992) 207-220.
O2^- + O2 + O2 => O4^- + O2             ! 3.5d-31*(300.0d0/Tgas)
# D. Liu, et al., Plasma Process. Polym. 7 (2010) 846-865.
O2^- + O(1D) => O + O2 + E              ! 1.0d-10
O2^- + O(1S) => O + O2 + E              ! 1.0d-10
O2^- + O(1S) => O^- + 2O                ! 1.0d-10
# D. Liu, et al., Plasma Sources Sci. Technol. 19 (2010) 025018 (22pp).
O2^- + H => HO2 + E                     ! 1.50d-9
O2^- + H2O => O2 + H2O + E              ! 5.0d-9*exp(-5000.0d0/Tgas)
#O2^- + OH => OH^- + O2                  ! 1.00d-10
# J. Prager, et al., Proc. Combust. Inst. 31 (2007) 1129-1137.
#O2^- + H => OH^- + O                    ! 1.79d-9
# A. Starikovskiy and N. Aleksandrov, Mechanism of Plasma-Assisted Ignition for H2 and C1-C5 Hydrocarbons, 55th AIAA Aerospace Sciences Meeting, 2017.
#O2^- + H2 => OH + OH^-                  ! 4.0d-11

# Reactions of O4^-
# M. Capitelli, et al., Plasma Kinetics in Atmospheric Gases, Springer-Verlag, Berlin, Heidelberg, 2000.
O4^- + O => O^- + O2 + O2               ! 3.0d-10
O4^- + O2(a1) => O2^- + O2 + O2         ! 1.0d-10
O4^- + O2(b1) => O2^- + O2 + O2         ! 1.0d-10
# D. Liu, et al., Plasma Process. Polym. 7 (2010) 846-865.
O4^- + O(1D) => O + 2O2 + E             ! 1.0d-10
O4^- + O(1S) => O + 2O2 + E             ! 1.0d-10
O4^- + O2(b1) => 3O2 + E                ! 1.0d-10
O4^- + ANY_NEUTRAL => O2^- + O2 + ANY_NEUTRAL   !  1.0d-10*exp(-1044.0d0/Tgas)
O4^- + O(1D) => O2^- + O2 + O           ! 1.0d-10
O4^- + O(1S) => O^- + 2O2               ! 1.0d-10

#-----------------------------------------------------------------------
#
# Ion-ion Recombination 
#
#----------------------------------------------------------------------

# Reactions of O^-
# M. Capitelli, et al., Plasma Kinetics in Atmospheric Gases, Springer-Verlag, Berlin, Heidelberg, 2000.
O^- + O2^+ => O + O2                     ! 2.0d-7*(300.0d0/Tgas)**0.5
O^- + N2^+ => O + N2                     ! 2.0d-7*(300.0d0/Tgas)**0.5
O^- + @A => O + @B                     ! 1.0d-7
    @A = N2^+  N4^+  O2^+  O4^+  
    @B = N+N   N2+N2 O+O   O2+O2 
O^- + @A + ANY_NEUTRAL => O + @B + ANY_NEUTRAL    ! 2.0d-25*(300.0d0/Tgas)**2.5
    @A = N2^+  O2^+   O4^+ 
    @B = N2    O2     O2+O2
O^- + N2^+ + ANY_NEUTRAL => N2O + ANY_NEUTRAL       ! 2.0d-25*(300.0d0/Tgas)**2.5  
O^- + O2^+ + ANY_NEUTRAL => O3 + ANY_NEUTRAL        ! 2.0d-25*(300.0d0/Tgas)**2.5      

# Reactions of O2^-

# M. Capitelli, et al., Plasma Kinetics in Atmospheric Gases, Springer-Verlag, Berlin, Heidelberg, 2000.
O2^- + N2^+ => O2 + N2                	! 2.0d-7*(300/Tgas)**0.5*(1+ (300/Tgas)**2)
O2^- + O2^+ => O2 + O2                	! 2.0d-7*(300/Tgas)**0.5*(1+ (300/Tgas)**2)
O2^- + @A => O2 + @B                   ! 1.0d-7
    @A = N2^+  N4^+  O2^+  O4^+ 
    @B = N+N   N2+N2 O+O   O2+O2 
O2^- + @A  + ANY_NEUTRAL => O2 + @B + ANY_NEUTRAL ! 2.0d-25*(300.0d0/Tgas)**2.5
    @A = N2^+  O2^+   O4^+ 
    @B = N2    O2     O2+O2
# D. Liu, et al., Plasma Sources Sci. Technol. 19 (2010) 025018 (22pp).
#O2^- + H2^+ => O2 + H2                 ! 2.0d-7*(300.0d0/Tgas)**0.5
#O2^- + H3^+ => OH + H2O                ! 2.0d-7*(300.0d0/Tgas)**0.5 

# Reactions of O4^-
# M. Capitelli, et al., Plasma Kinetics in Atmospheric Gases, Springer-Verlag, Berlin, Heidelberg, 2000.
O4^- + @A => 2O2 + @B                   ! 1.0d-7
    @A = N2^+  N4^+   O2^+   O4^+   
    @B = N2    N2+N2  O2     O2+O2 
# D. Liu, et al., Plasma Process. Polym. 7 (2010) 846-865.
O4^- + @A + ANY_NEUTRAL => 2O2 + @B + ANY_NEUTRAL  ! 2.0d-25*(300.0d0/Tgas)**2.5
    @A = O2^+   O4^+
    @B = O2     O2+O2

#-----------------------------------------------------------------------
#
# Electron impact vibrational excitation
#
#-----------------------------------------------------------------------

# Phelps database, www.lxcat.net.
E + N2 => E + N2(v1)                   ! BOLSIG N2 -> N2(v1)
E + N2 => E + N2(v2)                   ! BOLSIG N2 -> N2(v2)
E + N2 => E + N2(v3)                   ! BOLSIG N2 -> N2(v3)
E + N2 => E + N2(v4)                   ! BOLSIG N2 -> N2(v4)
E + N2 => E + N2(v5)                   ! BOLSIG N2 -> N2(v5)
E + N2 => E + N2(v6)                   ! BOLSIG N2 -> N2(v6)
E + N2 => E + N2(v7)                   ! BOLSIG N2 -> N2(v7)
E + N2 => E + N2(v8)                   ! BOLSIG N2 -> N2(v8)

# Biagi database, www.lxcat.net.
E + O2 => E + O2(v1)                   ! BOLSIG O2 -> O2(v1)     
E + O2 => E + O2(v2)                   ! BOLSIG O2 -> O2(v2)
E + O2 => E + O2(v3)                   ! BOLSIG O2 -> O2(v3)
E + O2 => E + O2(v4)                   ! BOLSIG O2 -> O2(v4)

# It is assumed that N2(v) and O2(v) are primarily consumed by VT relaxation (according to CH4 results)
# X. Mao and Q. Chen, AIAA JOURNAL, 56 (11) (2018) 4312-4320

# VT-N2 Rate constant Definition
$ double precision :: kVT10_N2DME, kVT10_N2N2, kVT10_N2O2, kVT10_N2CO2, kVT10_N2H2O, kVT10_N2H2, kVT10_N2OH ! cm3.s-1 
$ double precision :: kVT10_N2H, kVT10_N2O, kVT10_N2N, kVT10_N2CH4, kVT10_N2C2H2, kVT10_N2C2H4, kVT10_N2C2H6 ! cm3.s-1
$ double precision :: kVT10_O2DME, kVT10_O2N2, kVT10_O2O2, kVT10_O2CO2, kVT10_O2H2O, kVT10_O2H2 ! cm3.s-1
$ double precision :: kVT10_O2CH4, kVT10_O2C2H2, kVT10_O2C2H4, kVT10_O2C2H6, kVT10_O2OH, kVT10_O2H, kVT10_O2O ! cm3.s-1
$ double precision :: kVV10_O2O2, kVV10_N2N2 ! cm3.s-1
$ double precision :: M ! cm-3
$ double precision :: ktot, k0, kR1, kR2, kR3 ! cm3.s-1

# Rate constant is calculated at 100 Torr.
$ M = 100/760*101325.0d0/1.38064852d-17/Tgas
$ ktot = 3.0d-11*Tgas**0.17*exp(-2726.0d0/Tgas)
$ k0 = 2.2d-37*Tgas**2.34*exp(-1350.0d0/Tgas)
$ kR1 = 6.8d-16*Tgas**1.51*exp(-3040.0d0/Tgas)
$ kR2 = ktot*(k0*M/(ktot+k0*M))
$ kR3 = ktot-kR1-kR2

# VT-O2/N2 Rate constant Definition
$ kVT10_N2DME = 3.2d-14*Tgas*exp(-41.45d0/Tgas**(1.0d0/3.0d0))
$ kVT10_N2N2 = Tgas*exp(-22.86d0-328.9d0/Tgas**(1.0d0/3.0d0)+993.3d0/Tgas**(2.0d0/3.0d0))
$ kVT10_N2O2 = Tgas*exp(-22.86d0-328.9d0/Tgas**(1.0d0/3.0d0)+993.3d0/Tgas**(2.0d0/3.0d0))
$ kVT10_N2CO2 = exp(-19.414d0-134.73d0/Tgas**(1.0d0/3.0d0)+253.2d0/Tgas**(2.0d0/3.0d0)+251.7d0/Tgas) 
$ kVT10_N2H2O = Tgas*exp(-35.12d0-21.18d0/Tgas**(1.0d0/3.0d0))
$ kVT10_N2H2 = Tgas*exp(-24.89d0-167.24d0/Tgas**(1.0d0/3.0d0)+394.43d0/Tgas**(2.0d0/3.0d0))
$ kVT10_N2OH = Tgas*exp(-24.89d0-167.24d0/Tgas**(1.0d0/3.0d0)+394.43d0/Tgas**(2.0d0/3.0d0))
$ kVT10_N2H = 3.1d0*Tgas*exp(-24.89d0-167.24d0/Tgas**(1.0d0/3.0d0)+394.43d0/Tgas**(2.0d0/3.0d0))
$ kVT10_N2O = Tgas*exp(-34.03d0-33.11d0/Tgas**(1.0d0/3.0d0))
$ kVT10_N2N = 4.0d-16*(Tgas/300.0d0)**0.5
$ kVT10_N2CH4 = 3.2d-14*Tgas*exp(-41.45d0/Tgas**(1.0d0/3.0d0))
$ kVT10_N2C2H2 = 1.2d-15*Tgas*exp(-17.27d0/Tgas**(1.0d0/3.0d0))
$ kVT10_N2C2H4 = 6.0d-16*Tgas
$ kVT10_N2C2H6 = 6.0d-16*Tgas

$ kVT10_O2DME = Tgas*exp(-30.39d0-41.45d0/Tgas**(1.0d0/3.0d0))
$ kVT10_O2N2 = exp(-28.02d0-132.0d0/Tgas**(1.0d0/3.0d0))
$ kVT10_O2O2 = exp(-18.32d0-157.0d0/Tgas**(1.0d0/3.0d0)) 
$ kVT10_O2CO2 = Tgas*exp(-27.34d0-146.5d0/Tgas**(1.0d0/3.0d0)) 
$ kVT10_O2H2O = 100*exp(-18.32d0-157.0d0/Tgas**(1.0d0/3.0d0)) 
$ kVT10_O2H2 = exp(-22.04d0-91.5d0/Tgas**(1.0d0/3.0d0))
$ kVT10_O2CH4 = Tgas*exp(-30.39d0-41.45d0/Tgas**(1.0d0/3.0d0))
$ kVT10_O2C2H2 = Tgas*exp(-33.61d0-17.27d0/Tgas**(1.0d0/3.0d0))
$ kVT10_O2C2H4 = 1.05d-15*Tgas
$ kVT10_O2C2H6 = 1.05d-15*Tgas
$ kVT10_O2OH = 100*exp(-18.32d0-157.0d0/Tgas**(1.0d0/3.0d0)) 
$ kVT10_O2H = 1.7*exp(-22.04d0-91.5d0/Tgas**(1.0d0/3.0d0))
$ kVT10_O2O = Tgas*exp(-28.87d0-111.0d0/Tgas**(1.0d0/3.0d0)) 


# VV-O2/N2 Rate constant Definition
$ kVV10_N2N2 = 0.9d-14*(Tgas/300.0d0)**1.5
$ kVV10_O2O2 = 0.9d-14*(Tgas/300.0d0)**1.5

#-----------------------------------------------------------------------
#
# relaxation of N2(v)
#
#-----------------------------------------------------------------------

# SSH theory and approximations for the Morse oscillator model
# M. Capitelli, et al., Plasma Kinetics in Atmospheric Gases, Springer-Verlag, Berlin, Heidelberg, 2000
# A. Starikovskiy and N. Aleksandrov, Prog. Energy Combust. Sci. 39 (1) (2013) 61-110
# A. Starikovskiy and N. Aleksandrov, Mechanism of Plasma-Assisted Ignition for H2 and C1-C5 Hydrocarbons, 55th AIAA Aerospace Sciences Meeting, 2017

# Estimated from CH4
# <2015 K
N2(v1) + CH3OCH3 => N2 + CH3OCH3          !  kVT10_N2DME
N2(v2) + CH3OCH3 => N2(v1) + CH3OCH3      !  kVT10_N2DME*2.012*exp(2.288d0/Tgas**(1.0d0/3.0d0))
N2(v3) + CH3OCH3 => N2(v2) + CH3OCH3      !  kVT10_N2DME*3.037*exp(4.551d0/Tgas**(1.0d0/3.0d0))
N2(v4) + CH3OCH3 => N2(v3) + CH3OCH3      !  kVT10_N2DME*4.075*exp(6.826d0/Tgas**(1.0d0/3.0d0))
N2(v5) + CH3OCH3 => N2(v4) + CH3OCH3      !  kVT10_N2DME*5.125*exp(9.101d0/Tgas**(1.0d0/3.0d0))
N2(v6) + CH3OCH3 => N2(v5) + CH3OCH3      !  kVT10_N2DME*6.189*exp(11.377d0/Tgas**(1.0d0/3.0d0))
N2(v7) + CH3OCH3 => N2(v6) + CH3OCH3      !  kVT10_N2DME*7.266*exp(13.652d0/Tgas**(1.0d0/3.0d0))
N2(v8) + CH3OCH3 => N2(v7) + CH3OCH3      !  kVT10_N2DME*8.357*exp(15.927d0/Tgas**(1.0d0/3.0d0))

# <1620 K
N2(v1) + N2 => N2 + N2                    !  kVT10_N2N2
N2(v2) + N2 => N2(v1) + N2                !  kVT10_N2N2*2.012*exp(2.128d0/Tgas**(1.0d0/3.0d0))
N2(v3) + N2 => N2(v2) + N2                !  kVT10_N2N2*3.037*exp(4.256d0/Tgas**(1.0d0/3.0d0))
N2(v4) + N2 => N2(v3) + N2                !  kVT10_N2N2*4.075*exp(6.384d0/Tgas**(1.0d0/3.0d0))
N2(v5) + N2 => N2(v4) + N2                !  kVT10_N2N2*5.125*exp(8.512d0/Tgas**(1.0d0/3.0d0))
N2(v6) + N2 => N2(v5) + N2                !  kVT10_N2N2*6.189*exp(10.64d0/Tgas**(1.0d0/3.0d0))
N2(v7) + N2 => N2(v6) + N2                !  kVT10_N2N2*7.266*exp(12.769d0/Tgas**(1.0d0/3.0d0))
N2(v8) + N2 => N2(v7) + N2                !  kVT10_N2N2*8.357*exp(14.897d0/Tgas**(1.0d0/3.0d0))

# <1730 K
N2(v1) + O2 => N2 + O2                    !  kVT10_N2O2
N2(v2) + O2 => N2(v1) + O2                !  kVT10_N2O2*2.012*exp(2.174d0/Tgas**(1.0d0/3.0d0))
N2(v3) + O2 => N2(v2) + O2                !  kVT10_N2O2*3.037*exp(4.349d0/Tgas**(1.0d0/3.0d0))
N2(v4) + O2 => N2(v3) + O2                !  kVT10_N2O2*4.075*exp(6.523d0/Tgas**(1.0d0/3.0d0))
N2(v5) + O2 => N2(v4) + O2                !  kVT10_N2O2*5.125*exp(8.697d0/Tgas**(1.0d0/3.0d0))
N2(v6) + O2 => N2(v5) + O2                !  kVT10_N2O2*6.189*exp(10.872d0/Tgas**(1.0d0/3.0d0))
N2(v7) + O2 => N2(v6) + O2                !  kVT10_N2O2*7.266*exp(13.046d0/Tgas**(1.0d0/3.0d0))
N2(v8) + O2 => N2(v7) + O2                !  kVT10_N2O2*8.357*exp(15.221d0/Tgas**(1.0d0/3.0d0))

# <1980 K
N2(v1) + CO2 => N2 + CO2                  !  kVT10_N2CO2
N2(v2) + CO2 => N2(v1) + CO2              !  kVT10_N2CO2*2.012*exp(2.275d0/Tgas**(1.0d0/3.0d0))
N2(v3) + CO2 => N2(v2) + CO2              !  kVT10_N2CO2*3.037*exp(4.551d0/Tgas**(1.0d0/3.0d0))
N2(v4) + CO2 => N2(v3) + CO2              !  kVT10_N2CO2*4.075*exp(6.826d0/Tgas**(1.0d0/3.0d0))
N2(v5) + CO2 => N2(v4) + CO2              !  kVT10_N2CO2*5.125*exp(9.101d0/Tgas**(1.0d0/3.0d0))
N2(v6) + CO2 => N2(v5) + CO2              !  kVT10_N2CO2*6.189*exp(11.377d0/Tgas**(1.0d0/3.0d0))
N2(v7) + CO2 => N2(v6) + CO2              !  kVT10_N2CO2*7.266*exp(13.652d0/Tgas**(1.0d0/3.0d0))
N2(v8) + CO2 => N2(v7) + CO2              !  kVT10_N2CO2*8.357*exp(15.927d0/Tgas**(1.0d0/3.0d0))

# <1270 K
N2(v1) + H2O => N2 + H2O                  !  kVT10_N2H2O
N2(v2) + H2O => N2(v1) + H2O              !  kVT10_N2H2O*2.012*exp(1.961d0/Tgas**(1.0d0/3.0d0))
N2(v3) + H2O => N2(v2) + H2O              !  kVT10_N2H2O*3.037*exp(3.922d0/Tgas**(1.0d0/3.0d0))
N2(v4) + H2O => N2(v3) + H2O              !  kVT10_N2H2O*4.075*exp(5.883d0/Tgas**(1.0d0/3.0d0))
N2(v5) + H2O => N2(v4) + H2O              !  kVT10_N2H2O*5.125*exp(7.844d0/Tgas**(1.0d0/3.0d0))
N2(v6) + H2O => N2(v5) + H2O              !  kVT10_N2H2O*6.189*exp(9.806d0/Tgas**(1.0d0/3.0d0))
N2(v7) + H2O => N2(v6) + H2O              !  kVT10_N2H2O*7.266*exp(11.767d0/Tgas**(1.0d0/3.0d0))
N2(v8) + H2O => N2(v7) + H2O              !  kVT10_N2H2O*8.357*exp(13.728d0/Tgas**(1.0d0/3.0d0))

# >300 K 
N2(v1) + H2 => N2 + H2                    !  kVT10_N2H2
N2(v2) + H2 => N2(v1) + H2                !  kVT10_N2H2*2.012*exp(1.767d0*(1.867d0/Tgas)**0.5)
N2(v3) + H2 => N2(v2) + H2                !  kVT10_N2H2*3.037*exp(3.534d0*(1.867d0/Tgas)**0.5)
N2(v4) + H2 => N2(v3) + H2                !  kVT10_N2H2*4.075*exp(5.301d0*(1.867d0/Tgas)**0.5)
N2(v5) + H2 => N2(v4) + H2                !  kVT10_N2H2*5.125*exp(7.068d0*(1.867d0/Tgas)**0.5)
N2(v6) + H2 => N2(v5) + H2                !  kVT10_N2H2*6.189*exp(8.835d0*(1.867d0/Tgas)**0.5)
N2(v7) + H2 => N2(v6) + H2                !  kVT10_N2H2*7.266*exp(10.602d0*(1.867d0/Tgas)**0.5)
N2(v8) + H2 => N2(v7) + H2                !  kVT10_N2H2*8.357*exp(12.369d0*(1.867d0/Tgas)**0.5)

# <1225 K
N2(v1) + OH => N2 + OH                    !  kVT10_N2OH
N2(v2) + OH => N2(v1) + OH                !  kVT10_N2OH*2.012*exp(1.938d0/Tgas**(1.0d0/3.0d0))
N2(v3) + OH => N2(v2) + OH                !  kVT10_N2OH*3.037*exp(3.877d0/Tgas**(1.0d0/3.0d0))
N2(v4) + OH => N2(v3) + OH                !  kVT10_N2OH*4.075*exp(5.815d0/Tgas**(1.0d0/3.0d0))
N2(v5) + OH => N2(v4) + OH                !  kVT10_N2OH*5.125*exp(7.753d0/Tgas**(1.0d0/3.0d0))
N2(v6) + OH => N2(v5) + OH                !  kVT10_N2OH*6.189*exp(9.691d0/Tgas**(1.0d0/3.0d0))
N2(v7) + OH => N2(v6) + OH                !  kVT10_N2OH*7.266*exp(11.630d0/Tgas**(1.0d0/3.0d0))
N2(v8) + OH => N2(v7) + OH                !  kVT10_N2OH*8.357*exp(13.568d0/Tgas**(1.0d0/3.0d0))

# >300 K  
N2(v1) + H => N2 + H                      !  kVT10_N2H
N2(v2) + H => N2(v1) + H                  !  kVT10_N2H*2.012*exp(1.767d0*(0.966d0/Tgas)**0.5)
N2(v3) + H => N2(v2) + H                  !  kVT10_N2H*3.037*exp(3.534d0*(0.966d0/Tgas)**0.5)
N2(v4) + H => N2(v3) + H                  !  kVT10_N2H*4.075*exp(5.301d0*(0.966d0/Tgas)**0.5)
N2(v5) + H => N2(v4) + H                  !  kVT10_N2H*5.125*exp(7.068d0*(0.966d0/Tgas)**0.5)
N2(v6) + H => N2(v5) + H                  !  kVT10_N2H*6.189*exp(8.835d0*(0.966d0/Tgas)**0.5)
N2(v7) + H => N2(v6) + H                  !  kVT10_N2H*7.266*exp(10.602d0*(0.966d0/Tgas)**0.5)
N2(v8) + H => N2(v7) + H                  !  kVT10_N2H*8.357*exp(12.369d0*(0.966d0/Tgas)**0.5)

# <1180 K
N2(v1) + O => N2 + O                      !  kVT10_N2O
N2(v2) + O => N2(v1) + O                  !  kVT10_N2O*2.012*exp(1.914d0/Tgas**(1.0d0/3.0d0))
N2(v3) + O => N2(v2) + O                  !  kVT10_N2O*3.037*exp(3.828d0/Tgas**(1.0d0/3.0d0))
N2(v4) + O => N2(v3) + O                  !  kVT10_N2O*4.075*exp(5.741d0/Tgas**(1.0d0/3.0d0))
N2(v5) + O => N2(v4) + O                  !  kVT10_N2O*5.125*exp(7.655d0/Tgas**(1.0d0/3.0d0))
N2(v6) + O => N2(v5) + O                  !  kVT10_N2O*6.189*exp(9.569d0/Tgas**(1.0d0/3.0d0))
N2(v7) + O => N2(v6) + O                  !  kVT10_N2O*7.266*exp(11.483d0/Tgas**(1.0d0/3.0d0))
N2(v8) + O => N2(v7) + O                  !  kVT10_N2O*8.357*exp(13.396d0/Tgas**(1.0d0/3.0d0))

# M. Capitelli, et al., Plasma Kinetics in Atmospheric Gases, Springer-Verlag, Berlin, Heidelberg, 2000
# <1080 K
N2(v1) + N => N2 + N                      !  kVT10_N2N
N2(v2) + N => N2(v1) + N                  !  kVT10_N2N*2.012*exp(1.859d0/Tgas**(1.0d0/3.0d0))
N2(v3) + N => N2(v2) + N                  !  kVT10_N2N*3.037*exp(3.718d0/Tgas**(1.0d0/3.0d0))
N2(v4) + N => N2(v3) + N                  !  kVT10_N2N*4.075*exp(5.577d0/Tgas**(1.0d0/3.0d0))
N2(v5) + N => N2(v4) + N                  !  kVT10_N2N*5.125*exp(7.436d0/Tgas**(1.0d0/3.0d0))
N2(v6) + N => N2(v5) + N                  !  kVT10_N2N*6.189*exp(9.295d0/Tgas**(1.0d0/3.0d0))
N2(v7) + N => N2(v6) + N                  !  kVT10_N2N*7.266*exp(11.154d0/Tgas**(1.0d0/3.0d0))
N2(v8) + N => N2(v7) + N                  !  kVT10_N2N*8.357*exp(13.013d0/Tgas**(1.0d0/3.0d0))

# <1180 K
N2(v1) + CH4 => N2 + CH4                  !  kVT10_N2CH4
N2(v2) + CH4 => N2(v1) + CH4              !  kVT10_N2CH4*2.012*exp(1.914d0/Tgas**(1.0d0/3.0d0))
N2(v3) + CH4 => N2(v2) + CH4              !  kVT10_N2CH4*3.037*exp(3.828d0/Tgas**(1.0d0/3.0d0))
N2(v4) + CH4 => N2(v3) + CH4              !  kVT10_N2CH4*4.075*exp(5.741d0/Tgas**(1.0d0/3.0d0))
N2(v5) + CH4 => N2(v4) + CH4              !  kVT10_N2CH4*5.125*exp(7.655d0/Tgas**(1.0d0/3.0d0))
N2(v6) + CH4 => N2(v5) + CH4              !  kVT10_N2CH4*6.189*exp(9.569d0/Tgas**(1.0d0/3.0d0))
N2(v7) + CH4 => N2(v6) + CH4              !  kVT10_N2CH4*7.266*exp(11.483d0/Tgas**(1.0d0/3.0d0))
N2(v8) + CH4 => N2(v7) + CH4              !  kVT10_N2CH4*8.357*exp(13.396d0/Tgas**(1.0d0/3.0d0))

# <1560 K
N2(v1) + C2H2 => N2 + C2H2                !  kVT10_N2C2H2
N2(v2) + C2H2 => N2(v1) + C2H2            !  kVT10_N2C2H2*2.012*exp(2.101d0/Tgas**(1.0d0/3.0d0))
N2(v3) + C2H2 => N2(v2) + C2H2            !  kVT10_N2C2H2*3.037*exp(4.203d0/Tgas**(1.0d0/3.0d0))
N2(v4) + C2H2 => N2(v3) + C2H2            !  kVT10_N2C2H2*4.075*exp(6.304d0/Tgas**(1.0d0/3.0d0))
N2(v5) + C2H2 => N2(v4) + C2H2            !  kVT10_N2C2H2*5.125*exp(8.406d0/Tgas**(1.0d0/3.0d0))
N2(v6) + C2H2 => N2(v5) + C2H2            !  kVT10_N2C2H2*6.189*exp(10.507d0/Tgas**(1.0d0/3.0d0))
N2(v7) + C2H2 => N2(v6) + C2H2            !  kVT10_N2C2H2*7.266*exp(12.609d0/Tgas**(1.0d0/3.0d0))
N2(v8) + C2H2 => N2(v7) + C2H2            !  kVT10_N2C2H2*8.357*exp(14.710d0/Tgas**(1.0d0/3.0d0))

# <1620 K
N2(v1) + C2H4 => N2 + C2H4                !  kVT10_N2C2H4
N2(v2) + C2H4 => N2(v1) + C2H4            !  kVT10_N2C2H4*2.012*exp(2.128d0/Tgas**(1.0d0/3.0d0))
N2(v3) + C2H4 => N2(v2) + C2H4            !  kVT10_N2C2H4*3.037*exp(4.256d0/Tgas**(1.0d0/3.0d0))
N2(v4) + C2H4 => N2(v3) + C2H4            !  kVT10_N2C2H4*4.075*exp(6.3584d0/Tgas**(1.0d0/3.0d0))
N2(v5) + C2H4 => N2(v4) + C2H4            !  kVT10_N2C2H4*5.125*exp(8.512d0/Tgas**(1.0d0/3.0d0))
N2(v6) + C2H4 => N2(v5) + C2H4            !  kVT10_N2C2H4*6.189*exp(10.64d0/Tgas**(1.0d0/3.0d0))
N2(v7) + C2H4 => N2(v6) + C2H4            !  kVT10_N2C2H4*7.266*exp(12.769d0/Tgas**(1.0d0/3.0d0))
N2(v8) + C2H4 => N2(v7) + C2H4            !  kVT10_N2C2H4*8.357*exp(14.897d0/Tgas**(1.0d0/3.0d0))

# <1675 K
N2(v1) + C2H6 => N2 + C2H6                !  kVT10_N2C2H6
N2(v2) + C2H6 => N2(v1) + C2H6            !  kVT10_N2C2H6*2.012*exp(2.152d0/Tgas**(1.0d0/3.0d0))
N2(v3) + C2H6 => N2(v2) + C2H6            !  kVT10_N2C2H6*3.037*exp(4.305d0/Tgas**(1.0d0/3.0d0))
N2(v4) + C2H6 => N2(v3) + C2H6            !  kVT10_N2C2H6*4.075*exp(6.457d0/Tgas**(1.0d0/3.0d0))
N2(v5) + C2H6 => N2(v4) + C2H6            !  kVT10_N2C2H6*5.125*exp(8.609d0/Tgas**(1.0d0/3.0d0))
N2(v6) + C2H6 => N2(v5) + C2H6            !  kVT10_N2C2H6*6.189*exp(10.761d0/Tgas**(1.0d0/3.0d0))
N2(v7) + C2H6 => N2(v6) + C2H6            !  kVT10_N2C2H6*7.266*exp(12.914d0/Tgas**(1.0d0/3.0d0))
N2(v8) + C2H6 => N2(v7) + C2H6            !  kVT10_N2C2H6*8.357*exp(15.066d0/Tgas**(1.0d0/3.0d0))

#-----------------------------------------------------------------------
#
# Relaxation of O2(v)
#
#-----------------------------------------------------------------------

# SSH theory and approximations for the Morse oscillator model.
# M. Capitelli, et al., Plasma Kinetics in Atmospheric Gases, Springer-Verlag, Berlin, Heidelberg, 2000.
# A. Starikovskiy and N. Aleksandrov, Prog. Energy Combust. Sci. 39 (1) (2013) 61-110.
# A. Starikovskiy and N. Aleksandrov, Mechanism of Plasma-Assisted Ignition for H2 and C1-C5 Hydrocarbons, 55th AIAA Aerospace Sciences Meeting, 2017
#>535 K
O2(v1) + CH3OCH3 => O2 + CH3OCH3         ! kVT10_O2DME
O2(v2) + CH3OCH3 => O2(v1) + CH3OCH3     ! kVT10_O2DME*2.015*exp(1.45d0*(18.87d0/Tgas)**0.5) 
O2(v3) + CH3OCH3 => O2(v2) + CH3OCH3     ! kVT10_O2DME*3.047*exp(2.90d0*(18.87d0/Tgas)**0.5) 
O2(v4) + CH3OCH3 => O2(v3) + CH3OCH3     ! kVT10_O2DME*4.094*exp(4.35d0*(18.87d0/Tgas)**0.5)

#>745 K
O2(v1) + N2 => O2 + N2                   ! kVT10_O2N2 
O2(v2) + N2 => O2(v1) + N2               ! kVT10_O2N2*2.015*exp(1.45d0*(14.933d0/Tgas)**0.5) 
O2(v3) + N2 => O2(v2) + N2               ! kVT10_O2N2*3.047*exp(2.90d0*(14.933d0/Tgas)**0.5)  
O2(v4) + N2 => O2(v3) + N2               ! kVT10_O2N2*4.094*exp(4.35d0*(14.933d0/Tgas)**0.5) 

#>800 K
O2(v1) + O2 => O2 + O2                   ! kVT10_O2O2 
O2(v2) + O2 => O2(v1) + O2               ! kVT10_O2O2*2.015*exp(1.45d0*(16.0d0/Tgas)**0.5) 
O2(v3) + O2 => O2(v2) + O2               ! kVT10_O2O2*3.047*exp(2.90d0*(16.0d0/Tgas)**0.5)  
O2(v4) + O2 => O2(v3) + O2               ! kVT10_O2O2*4.094*exp(4.35d0*(16.0d0/Tgas)**0.5)  

#>925 K
O2(v1) + CO2 => O2 + CO2                 ! kVT10_O2CO2
O2(v2) + CO2 => O2(v1) + CO2             ! kVT10_O2CO2*2.015*exp(1.45d0*(18.53d0/Tgas)**0.5) 
O2(v3) + CO2 => O2(v2) + CO2             ! kVT10_O2CO2*3.047*exp(2.90d0*(18.53d0/Tgas)**0.5) 
O2(v4) + CO2 => O2(v3) + CO2             ! kVT10_O2CO2*4.094*exp(4.35d0*(18.53d0/Tgas)**0.5) 

#>575 K
O2(v1) + H2O => O2 + H2O                 ! kVT10_O2H2O 
O2(v2) + H2O => O2(v1) + H2O             ! kVT10_O2H2O*2.015*exp(1.45d0*(11.52d0/Tgas)**0.5) 
O2(v3) + H2O => O2(v2) + H2O             ! kVT10_O2H2O*3.047*exp(2.90d0*(11.52d0/Tgas)**0.5)  
O2(v4) + H2O => O2(v3) + H2O             ! kVT10_O2H2O*4.094*exp(4.35d0*(11.52d0/Tgas)**0.5) 

#>300 K
O2(v1) + H2 => O2 + H2                   ! kVT10_O2H2
O2(v2) + H2 => O2(v1) + H2               ! kVT10_O2H2*2.015*exp(1.45d0*(1.882d0/Tgas)**0.5) 
O2(v3) + H2 => O2(v2) + H2               ! kVT10_O2H2*3.047*exp(2.90d0*(1.882d0/Tgas)**0.5)
O2(v4) + H2 => O2(v3) + H2               ! kVT10_O2H2*4.094*exp(4.35d0*(1.882d0/Tgas)**0.5)

#>535 K
O2(v1) + CH4 => O2 + CH4                 ! kVT10_O2CH4
O2(v2) + CH4 => O2(v1) + CH4             ! kVT10_O2CH4*2.015*exp(1.45d0*(10.67d0/Tgas)**0.5) 
O2(v3) + CH4 => O2(v2) + CH4             ! kVT10_O2CH4*3.047*exp(2.90d0*(10.67d0/Tgas)**0.5) 
O2(v4) + CH4 => O2(v3) + CH4             ! kVT10_O2CH4*4.094*exp(4.35d0*(10.67d0/Tgas)**0.5) 

#>715 K
O2(v1) + C2H2 => O2 + C2H2               ! kVT10_O2C2H2
O2(v2) + C2H2 => O2(v1) + C2H2           ! kVT10_O2C2H2*2.015*exp(1.45d0*(14.34d0/Tgas)**0.5) 
O2(v3) + C2H2 => O2(v2) + C2H2           ! kVT10_O2C2H2*3.047*exp(2.90d0*(14.34d0/Tgas)**0.5) 
O2(v4) + C2H2 => O2(v3) + C2H2           ! kVT10_O2C2H2*4.094*exp(4.35d0*(14.34d0/Tgas)**0.5) 

#>745 K
O2(v1) + C2H4 => O2 + C2H4               ! kVT10_O2C2H4
O2(v2) + C2H4 => O2(v1) + C2H4           ! kVT10_O2C2H4*2.015*exp(1.45d0*(14.93d0/Tgas)**0.5) 
O2(v3) + C2H4 => O2(v2) + C2H4           ! kVT10_O2C2H4*3.047*exp(2.90d0*(14.93d0/Tgas)**0.5) 
O2(v4) + C2H4 => O2(v3) + C2H4           ! kVT10_O2C2H4*4.094*exp(4.35d0*(14.93d0/Tgas)**0.5) 

#>775 K
O2(v1) + C2H6 => O2 + C2H6               ! kVT10_O2C2H6
O2(v2) + C2H6 => O2(v1) + C2H6           ! kVT10_O2C2H6*2.015*exp(1.45d0*(15.48d0/Tgas)**0.5) 
O2(v3) + C2H6 => O2(v2) + C2H6           ! kVT10_O2C2H6*3.047*exp(2.90d0*(15.48d0/Tgas)**0.5) 
O2(v4) + C2H6 => O2(v3) + C2H6           ! kVT10_O2C2H6*4.094*exp(4.35d0*(15.48d0/Tgas)**0.5) 

#>555 K
O2(v1) + OH => O2 + OH                   ! kVT10_O2OH